C([C@@H](C(C(N(C1=C2C(=NC(=N1)[H])[N](C(=N2)[H])[C@H]3[C@@H]([C@@H]([C@H](O3)C(O[H])([H])[H])O[H])O[H])[H])([H])[H])([H])[H])C(O[C@H]4[C@@H]([C@H]([C@@H]([C@H](O4)C(O[H])([H])[H])O[H])O[H])O[H])([H])[H])([H])([H])[H]
     RDKit          3D

 69 72  0  0  1  0  0  0  0  0999 V2000
   -2.0852    1.2346    1.5432 C   0  0  0  0  0  0  0  0  0  0  0  0
   -2.2858    0.8884    0.0630 C   0  0  0  0  0  0  0  0  0  0  0  0
   -1.0955    0.1104   -0.5276 C   0  0  0  0  0  0  0  0  0  0  0  0
    0.2548    0.8178   -0.3750 C   0  0  0  0  0  0  0  0  0  0  0  0
    1.2569    0.1040   -1.1507 N   0  0  0  0  0  0  0  0  0  0  0  0
    2.5767    0.5186   -0.9392 C   0  0  0  0  0  0  0  0  0  0  0  0
    3.6548   -0.3798   -1.0741 C   0  0  0  0  0  0  0  0  0  0  0  0
    4.9290    0.1148   -0.8410 C   0  0  0  0  0  0  0  0  0  0  0  0
    5.2536    1.3726   -0.5019 N   0  0  0  0  0  0  0  0  0  0  0  0
    4.1538    2.1473   -0.4004 C   0  0  0  0  0  0  0  0  0  0  0  0
    2.8643    1.8001   -0.5916 N   0  0  0  0  0  0  0  0  0  0  0  0
    5.7624   -0.9535   -1.0241 N   0  0  0  0  0  0  0  0  0  0  0  0
    4.9743   -2.0350   -1.3408 C   0  0  0  0  0  0  0  0  0  0  0  0
    3.6979   -1.7226   -1.3900 N   0  0  0  0  0  0  0  0  0  0  0  0
    7.2023   -1.0210   -0.8997 C   0  0  1  0  0  0  0  0  0  0  0  0
    8.0074    0.2808   -1.0421 C   0  0  1  0  0  0  0  0  0  0  0  0
    8.2868    0.6570    0.4053 C   0  0  1  0  0  0  0  0  0  0  0  0
    8.4344   -0.7099    1.0595 C   0  0  2  0  0  0  0  0  0  0  0  0
    7.4950   -1.5874    0.3987 O   0  0  0  0  0  0  0  0  0  0  0  0
    8.1334   -0.6885    2.5559 C   0  0  0  0  0  0  0  0  0  0  0  0
    8.2601   -2.0052    3.0931 O   0  0  0  0  0  0  0  0  0  0  0  0
    9.4611    1.4500    0.5327 O   0  0  0  0  0  0  0  0  0  0  0  0
    9.2845    0.0285   -1.6759 O   0  0  0  0  0  0  0  0  0  0  0  0
   -3.5748    0.0700   -0.1226 C   0  0  0  0  0  0  0  0  0  0  0  0
   -4.6970    0.8674    0.2569 O   0  0  0  0  0  0  0  0  0  0  0  0
   -5.8883    0.0780    0.4164 C   0  0  0  0  0  0  0  0  0  0  0  0
   -6.2429   -0.5451   -0.8191 O   0  0  0  0  0  0  0  0  0  0  0  0
   -7.6127   -0.9956   -0.9183 C   0  0  1  0  0  0  0  0  0  0  0  0
   -8.3750   -1.0427    0.4174 C   0  0  2  0  0  0  0  0  0  0  0  0
   -8.2732    0.2764    1.1979 C   0  0  1  0  0  0  0  0  0  0  0  0
   -6.9860    1.0452    0.8814 C   0  0  1  0  0  0  0  0  0  0  0  0
   -8.3234   -0.1299   -1.9684 C   0  0  0  0  0  0  0  0  0  0  0  0
   -7.8029   -2.0839    1.2301 O   0  0  0  0  0  0  0  0  0  0  0  0
   -9.3998    1.1113    0.8909 O   0  0  0  0  0  0  0  0  0  0  0  0
   -6.5869    1.8090    2.0300 O   0  0  0  0  0  0  0  0  0  0  0  0
   -7.6560   -0.2613   -3.2246 O   0  0  0  0  0  0  0  0  0  0  0  0
   -2.9647    1.7404    1.9561 H   0  0  0  0  0  0  0  0  0  0  0  0
   -1.2368    1.9117    1.6822 H   0  0  0  0  0  0  0  0  0  0  0  0
   -1.9039    0.3322    2.1371 H   0  0  0  0  0  0  0  0  0  0  0  0
   -2.3974    1.8363   -0.4801 H   0  0  0  0  0  0  0  0  0  0  0  0
   -1.0329   -0.8807   -0.0595 H   0  0  0  0  0  0  0  0  0  0  0  0
   -1.2874   -0.0671   -1.5938 H   0  0  0  0  0  0  0  0  0  0  0  0
    0.5402    0.8326    0.6837 H   0  0  0  0  0  0  0  0  0  0  0  0
    0.1717    1.8518   -0.7304 H   0  0  0  0  0  0  0  0  0  0  0  0
    1.2163   -0.9132   -1.1071 H   0  0  0  0  0  0  0  0  0  0  0  0
    4.3264    3.1852   -0.1277 H   0  0  0  0  0  0  0  0  0  0  0  0
    5.3859   -3.0214   -1.5147 H   0  0  0  0  0  0  0  0  0  0  0  0
    7.5428   -1.7471   -1.6484 H   0  0  0  0  0  0  0  0  0  0  0  0
    7.5314    1.0778   -1.6175 H   0  0  0  0  0  0  0  0  0  0  0  0
    7.4466    1.2048    0.8420 H   0  0  0  0  0  0  0  0  0  0  0  0
    9.4355   -1.1297    0.8998 H   0  0  0  0  0  0  0  0  0  0  0  0
    7.1073   -0.3595    2.7483 H   0  0  0  0  0  0  0  0  0  0  0  0
    8.8230   -0.0302    3.0931 H   0  0  0  0  0  0  0  0  0  0  0  0
    7.7885   -2.5961    2.4748 H   0  0  0  0  0  0  0  0  0  0  0  0
   10.0541    1.1568   -0.1910 H   0  0  0  0  0  0  0  0  0  0  0  0
    9.1343   -0.0097   -2.6375 H   0  0  0  0  0  0  0  0  0  0  0  0
   -3.6896   -0.2162   -1.1746 H   0  0  0  0  0  0  0  0  0  0  0  0
   -3.5318   -0.8416    0.4861 H   0  0  0  0  0  0  0  0  0  0  0  0
   -5.6871   -0.6790    1.1845 H   0  0  0  0  0  0  0  0  0  0  0  0
   -7.5347   -2.0143   -1.3191 H   0  0  0  0  0  0  0  0  0  0  0  0
   -9.4259   -1.3096    0.2501 H   0  0  0  0  0  0  0  0  0  0  0  0
   -8.3307    0.0695    2.2743 H   0  0  0  0  0  0  0  0  0  0  0  0
   -7.1718    1.7862    0.0943 H   0  0  0  0  0  0  0  0  0  0  0  0
   -8.3067    0.9312   -1.7081 H   0  0  0  0  0  0  0  0  0  0  0  0
   -9.3624   -0.4447   -2.1033 H   0  0  0  0  0  0  0  0  0  0  0  0
   -8.0267   -2.9362    0.8139 H   0  0  0  0  0  0  0  0  0  0  0  0
   -9.2989    1.9072    1.4490 H   0  0  0  0  0  0  0  0  0  0  0  0
   -5.6702    2.0930    1.8349 H   0  0  0  0  0  0  0  0  0  0  0  0
   -6.7029   -0.1482   -3.0365 H   0  0  0  0  0  0  0  0  0  0  0  0
  2  1  1  0
  3  2  1  0
  4  3  1  0
  5  4  1  0
  6  5  1  0
  7  6  2  0
  8  7  1  0
  9  8  2  0
 10  9  1  0
 11 10  2  0
 11  6  1  0
 12  8  1  0
 13 12  1  0
 14 13  2  0
 14  7  1  0
 15 12  1  0
 16 15  1  0
 17 16  1  0
 18 17  1  0
 19 18  1  0
 19 15  1  0
 18 20  1  0
 21 20  1  0
 17 22  1  0
 16 23  1  0
 24  2  1  0
 25 24  1  0
 25 26  1  0
 27 28  1  0
 28 29  1  0
 29 30  1  0
 30 31  1  0
 26 31  1  0
 26 27  1  0
 28 32  1  0
 29 33  1  0
 30 34  1  0
 31 35  1  0
 32 36  1  0
  1 37  1  0
  1 38  1  0
  1 39  1  0
  2 40  1  0
  3 41  1  0
  3 42  1  0
  4 43  1  0
  4 44  1  0
  5 45  1  0
 10 46  1  0
 13 47  1  0
 15 48  1  6
 16 49  1  6
 17 50  1  1
 18 51  1  1
 20 52  1  0
 20 53  1  0
 21 54  1  0
 22 55  1  0
 23 56  1  0
 24 57  1  0
 24 58  1  0
 26 59  1  0
 28 60  1  6
 29 61  1  6
 30 62  1  1
 31 63  1  6
 32 64  1  0
 32 65  1  0
 33 66  1  0
 34 67  1  0
 35 68  1  0
 36 69  1  0
M  END
$$$$
